This file contains any messages produced by compilers while
running configure, to aid debugging if configure makes a mistake.

It was created by Specfem3D_Globe configure 7.0.2, which was
generated by GNU Autoconf 2.69.  Invocation command line was

  $ ./configure FC=mpif90 MPIFC=mpif90

## --------- ##
## Platform. ##
## --------- ##

hostname = tigercpu.princeton.edu
uname -m = x86_64
uname -r = 3.10.0-957.12.1.el7.0.1.x86_64
uname -s = Linux
uname -v = #1 SMP Mon May 13 10:57:29 EDT 2019

/usr/bin/uname -p = x86_64
/bin/uname -X     = unknown

/bin/arch              = x86_64
/usr/bin/arch -k       = unknown
/usr/convex/getsysinfo = unknown
/usr/bin/hostinfo      = unknown
/bin/machine           = unknown
/usr/bin/oslevel       = unknown
/bin/universe          = unknown

PATH: /usr/local/cuda-10.1/bin
PATH: /opt/intel/compilers_and_libraries_2019.3.199/linux/mpi/intel64/libfabric/bin
PATH: /opt/intel/compilers_and_libraries_2019.3.199/linux/mpi/intel64/bin
PATH: /opt/intel/compilers_and_libraries_2017.5.239/linux/bin/intel64
PATH: /usr/local/intel/bin
PATH: /opt/rh/devtoolset-4/root/usr/bin
PATH: /tigress/bozdag/PRE-PROC/Anaconda2/bin
PATH: /home/bozdag/bin/evalresp
PATH: /home/bozdag/bin/gmt-aux-1.0/bin
PATH: /home/bozdag/bin/sac-101.3b/bin
PATH: /home/bozdag/bin/rdseedv5.0
PATH: /home/bozdag/bin/UTIL/perl
PATH: /home/bozdag/bin/lib
PATH: /home/bozdag/bin/mxml-2.7/lib
PATH: /home/bozdag/bin
PATH: /home/bozdag/bin/iasp91
PATH: /usr/lib64/qt-3.3/bin
PATH: /usr/local/bin
PATH: /usr/bin
PATH: /usr/local/sbin
PATH: /usr/sbin
PATH: /opt/puppetlabs/bin
PATH: /tigress/ml15/shared/adios-1.12.0-gnu-4.8/bin
PATH: /home/bozdag/bin/
PATH: /home/bozdag/bin/paraview-3.3.1-Linux-i686/bin
PATH: /home/bozdag/bin/gnuplot
PATH: /tigress/ml15/shared/mxml-2.9/bin
PATH: /tigress/ml15/shared/adios-1.11.0/bin
PATH: /home/bozdag/.local/bin
PATH: /home/bozdag/bin


## ----------- ##
## Core tests. ##
## ----------- ##

configure:2654: checking build system type
configure:2668: result: x86_64-unknown-linux-gnu
configure:2688: checking host system type
configure:2701: result: x86_64-unknown-linux-gnu
configure:3153: checking for Fortran compiler version
configure:3162: mpif90 --version >&5
ifort (IFORT) 17.0.5 20170817
Copyright (C) 1985-2017 Intel Corporation.  All rights reserved.

configure:3173: $? = 0
configure:3162: mpif90 -v >&5
mpif90 for the Intel(R) MPI Library 2019 Update 3 for Linux*
Copyright 2003-2019, Intel Corporation.
ifort version 17.0.5
configure:3173: $? = 0
configure:3162: mpif90 -V >&5
GNU ld version 2.25.1-10.el7.1
Intel(R) Fortran Intel(R) 64 Compiler for applications running on Intel(R) 64, Version 17.0.5.239 Build 20170817
Copyright (C) 1985-2017 Intel Corporation.  All rights reserved.

/opt/intel/compilers_and_libraries_2017.5.239/linux/compiler/lib/intel64_lin/for_main.o: In function `main':
for_main.c:(.text+0x2a): undefined reference to `MAIN__'
configure:3173: $? = 1
configure:3162: mpif90 -qversion >&5
ifort: command line warning #10006: ignoring unknown option '-qversion'
/opt/intel/compilers_and_libraries_2017.5.239/linux/compiler/lib/intel64_lin/for_main.o: In function `main':
for_main.c:(.text+0x2a): undefined reference to `MAIN__'
configure:3173: $? = 1
configure:3188: checking whether the Fortran compiler works
configure:3210: mpif90  -L/usr/local/cuda-10.1/lib64  conftest.f  >&5
configure:3214: $? = 0
configure:3262: result: yes
configure:3265: checking for Fortran compiler default output file name
configure:3267: result: a.out
configure:3273: checking for suffix of executables
configure:3280: mpif90 -o conftest  -L/usr/local/cuda-10.1/lib64  conftest.f  >&5
configure:3284: $? = 0
configure:3306: result: 
configure:3322: checking whether we are cross compiling
configure:3330: mpif90 -o conftest  -L/usr/local/cuda-10.1/lib64  conftest.f  >&5
configure:3334: $? = 0
configure:3341: ./conftest
configure:3345: $? = 0
configure:3360: result: no
configure:3365: checking for suffix of object files
configure:3381: mpif90 -c   conftest.f >&5
configure:3385: $? = 0
configure:3406: result: o
configure:3414: checking whether we are using the GNU Fortran compiler
configure:3427: mpif90 -c   conftest.F >&5
conftest.F(3): error #5082: Syntax error, found END-OF-STATEMENT when expecting one of: => = . [ % ( :
       choke me
---------------^
compilation aborted for conftest.F (code 1)
configure:3427: $? = 1
configure: failed program was:
|       program main
| #ifndef __GNUC__
|        choke me
| #endif
| 
|       end
configure:3436: result: no
configure:3442: checking whether mpif90 accepts -g
configure:3453: mpif90 -c -g  conftest.f >&5
configure:3453: $? = 0
configure:3461: result: yes
configure:3500: running /bin/sh ./flags.guess
configure:3511: checking how to get verbose linking output from mpif90
configure:3521: mpif90 -c -g  conftest.f >&5
configure:3521: $? = 0
configure:3539: mpif90 -o conftest -g -v -L/usr/local/cuda-10.1/lib64 conftest.f
mpif90 for the Intel(R) MPI Library 2019 Update 3 for Linux*
Copyright 2003-2019, Intel Corporation.
ifort version 17.0.5
/opt/intel/compilers_and_libraries_2017.5.239/linux/bin/intel64/fortcom    -D__INTEL_COMPILER=1700 -D__INTEL_COMPILER_UPDATE=5 -D__unix__ -D__unix -D__linux__ -D__linux -D__gnu_linux__ -Dunix -Dlinux -D__ELF__ -D__x86_64 -D__x86_64__ -D__amd64 -D__amd64__ -D__INTEL_COMPILER_BUILD_DATE=20170817 -D__INTEL_OFFLOAD -D__i686 -D__i686__ -D__pentiumpro -D__pentiumpro__ -D__pentium4 -D__pentium4__ -D__tune_pentium4__ -D__SSE2__ -D__SSE2_MATH__ -D__SSE__ -D__SSE_MATH__ -D__MMX__ -mGLOB_pack_sort_init_list -I. -I/opt/intel/compilers_and_libraries_2019.3.199/linux/mpi/intel64/include/gfortran -I/opt/intel/compilers_and_libraries_2019.3.199/linux/mpi/intel64/include -I/opt/intel/compilers_and_libraries_2019.3.199/linux/mpi/intel64/include -I/opt/intel/compilers_and_libraries_2017.5.239/linux/mkl/include -I/opt/intel/compilers_and_libraries_2017.5.239/linux/mkl/include/intel64/lp64 -I/usr/local/intel/include -I/usr/local/cuda-10.1/include -I/opt/intel/compilers_and_libraries_2017.5.239/linux/compiler/include/intel64 -I/opt/intel/compilers_and_libraries_2017.5.239/linux/compiler/include/icc -I/opt/intel/compilers_and_libraries_2017.5.239/linux/compiler/include -I/usr/local/include -I/opt/rh/devtoolset-4/root/usr/lib/gcc/x86_64-redhat-linux/5.3.1/include -I/opt/rh/devtoolset-4/root/usr/include/ -I/usr/include "-fp_modbits honor_f32_conversion" "-fp_modbits honor_f64_conversion" -O0 -g2 "-reentrancy threaded" -simd -offload_host -mGLOB_em64t=TRUE -mP1OPT_version=17.0-intel64 -mGLOB_diag_file=/tmp/ifortFcK06O.diag -mGLOB_long_size_64 -mGLOB_routine_pointer_size_64 -mGLOB_source_language=GLOB_SOURCE_LANGUAGE_F90 -mP2OPT_static_promotion -mP1OPT_print_version=FALSE -mCG_use_gas_got_workaround=F -mP2OPT_align_option_used=TRUE -mGLOB_gcc_version=531 "-mGLOB_options_string=-I/opt/intel/compilers_and_libraries_2019.3.199/linux/mpi/intel64/include/gfortran -I/opt/intel/compilers_and_libraries_2019.3.199/linux/mpi/intel64/include -o conftest -g -v -L/usr/local/cuda-10.1/lib64 -L/opt/intel/compilers_and_libraries_2019.3.199/linux/mpi/intel64/lib/debug_mt -L/opt/intel/compilers_and_libraries_2019.3.199/linux/mpi/intel64/lib -Xlinker --enable-new-dtags -Xlinker -rpath -Xlinker /opt/intel/compilers_and_libraries_2019.3.199/linux/mpi/intel64/lib/debug_mt -Xlinker -rpath -Xlinker /opt/intel/compilers_and_libraries_2019.3.199/linux/mpi/intel64/lib -lmpifort -lmpi -lrt -lpthread -Xlinker --enable-new-dtags -ldl" -mGLOB_cxx_limited_range=FALSE -mCG_extend_parms=FALSE -mGLOB_compiler_bin_directory=/opt/intel/compilers_and_libraries_2017.5.239/linux/bin/intel64 -mP3OPT_emit_line_numbers -mP2OPT_suppress_unreferenced_locals=FALSE -mGLOB_debug_target=GLOB_DEBUG_TARGET_ALL -mDEBUG_info_level=2 -mDEBUG_use_indirect_strings=TRUE -mGLOB_debug_format=GLOB_DEBUG_FORMAT_DWARF40 -mGLOB_as_output_backup_file_name=/tmp/ifortHZ6W5Eas_.s -mGLOB_dashboard_use_source_name -mGLOB_instruction_tuning=0x0 -mGLOB_uarch_tuning=0x0 -mGLOB_product_id_code=0x22006d8f -mGLOB_maintain_errno -mGLOB_noinline_intrinsics -mGLOB_use_base_pointer=1 -mCG_bnl_movbe=T -mGLOB_extended_instructions=0x8 -mP3OPT_use_mspp_call_convention -mP2OPT_subs_out_of_bound=FALSE -mP2OPT_disam_type_based_disam=2 -mGLOB_ansi_alias -mIPOPT_ninl_limit=0 -mIPOPT_ninl_user_level=0 -mPGOPTI_value_profile_use=T -mGLOB_opt_report_use_source_name -mP2OPT_gen_linux_const_pooling=FALSE -mP2OPT_il0_array_sections=TRUE -mGLOB_offload_mode=1 -mP2OPT_offload_unique_var_string=ifort2056772374I2C1de -mGLOB_opt_level=0 -mIPOPT_args_in_regs=0 -mP2OPT_disam_assume_nonstd_intent_in=FALSE -mGLOB_imf_mapping_library=/opt/intel/compilers_and_libraries_2017.5.239/linux/bin/intel64/libiml_attr.so -mIPOPT_single_file_compile_and_link=TRUE -mP2OPT_hlo_embed_loopinfo -mPGOPTI_gen_threadsafe_level=0 -mIPOPT_lto_object_enabled -mIPOPT_lto_object_value=1 -mIPOPT_obj_output_file_name=/tmp/ifortFcK06O.o -mIPOPT_whole_archive_fixup_file_name=/tmp/ifortwarchDvpN5u -mGLOB_linker_version=2.25.1 -mGLOB_driver_tempfile_name=/tmp/iforttempfilecpOT5p -mP3OPT_asm_target=P3OPT_ASM_TARGET_GAS -mGLOB_async_unwind_tables=TRUE -mGLOB_obj_output_file=/tmp/ifortFcK06O.o -mGLOB_source_dialect=GLOB_SOURCE_DIALECT_FORTRAN -mP1OPT_source_file_name=conftest.f -mP1OPT_full_source_file_name=/tigress/bozdag/MARS/SSR_R1/specfem3d_marsglobe_may2019/conftest.f -mP2OPT_symtab_type_copy=true conftest.f
#include "..." search starts here:
#include <...> search starts here:
 .
 /opt/intel/compilers_and_libraries_2019.3.199/linux/mpi/intel64/include/gfortran
 /opt/intel/compilers_and_libraries_2019.3.199/linux/mpi/intel64/include
 /opt/intel/compilers_and_libraries_2019.3.199/linux/mpi/intel64/include
 /opt/intel/compilers_and_libraries_2017.5.239/linux/mkl/include
 /opt/intel/compilers_and_libraries_2017.5.239/linux/mkl/include/intel64/lp64
 /usr/local/intel/include
 /usr/local/cuda-10.1/include
 /opt/intel/compilers_and_libraries_2017.5.239/linux/compiler/include/intel64
 /opt/intel/compilers_and_libraries_2017.5.239/linux/compiler/include/icc
 /opt/intel/compilers_and_libraries_2017.5.239/linux/compiler/include
 /usr/local/include
 /opt/rh/devtoolset-4/root/usr/lib/gcc/x86_64-redhat-linux/5.3.1/include
 /opt/rh/devtoolset-4/root/usr/include/
 /usr/include
End of search list.
ld    /lib/../lib64/crt1.o /lib/../lib64/crti.o /opt/rh/devtoolset-4/root/usr/lib/gcc/x86_64-redhat-linux/5.3.1/crtbegin.o --eh-frame-hdr --build-id -dynamic-linker /lib64/ld-linux-x86-64.so.2 -m elf_x86_64 -L/usr/local/cuda-10.1/lib64 -L/opt/intel/compilers_and_libraries_2019.3.199/linux/mpi/intel64/lib/debug_mt -L/opt/intel/compilers_and_libraries_2019.3.199/linux/mpi/intel64/lib -o conftest /opt/intel/compilers_and_libraries_2017.5.239/linux/compiler/lib/intel64_lin/for_main.o -L/usr/local/cuda-10.1/lib64 -L/opt/intel/compilers_and_libraries_2019.3.199/linux/mpi/intel64/lib -L/usr/local/intel/lib64/intel-mpi -L/opt/intel/compilers_and_libraries_2017.5.239/linux/mkl/lib/intel64 -L/opt/intel/compilers_and_libraries_2017.5.239/linux/compiler/lib/intel64 -L/usr/local/intel/lib64 -L/opt/intel/compilers_and_libraries_2017.5.239/linux/compiler/lib/intel64_lin -L/usr/local/intel/lib64/../lib64 -L/usr/local/intel/lib64/../lib64/ -L/opt/rh/devtoolset-4/root/usr/lib/gcc/x86_64-redhat-linux/5.3.1/ -L/opt/rh/devtoolset-4/root/usr/lib/gcc/x86_64-redhat-linux/5.3.1/../../../../lib64 -L/opt/rh/devtoolset-4/root/usr/lib/gcc/x86_64-redhat-linux/5.3.1/../../../../lib64/ -L/lib/../lib64 -L/lib/../lib64/ -L/usr/lib/../lib64 -L/usr/lib/../lib64/ -L/usr/local/cuda-10.1/lib64 -L/usr/local/cuda-10.1/lib64/ -L/opt/intel/compilers_and_libraries_2019.3.199/linux/mpi/intel64/lib/ -L/usr/local/intel/lib64/intel-mpi/ -L/opt/intel/compilers_and_libraries_2017.5.239/linux/mkl/lib/intel64/ -L/opt/intel/compilers_and_libraries_2017.5.239/linux/compiler/lib/intel64/ -L/usr/local/intel/lib64 -L/usr/local/intel/lib64/ -L/opt/rh/devtoolset-4/root/usr/lib/gcc/x86_64-redhat-linux/5.3.1/../../../ -L/lib64 -L/lib/ -L/usr/lib64 -L/usr/lib /tmp/ifortFcK06O.o --enable-new-dtags -rpath /opt/intel/compilers_and_libraries_2019.3.199/linux/mpi/intel64/lib/debug_mt -rpath /opt/intel/compilers_and_libraries_2019.3.199/linux/mpi/intel64/lib -lmpifort -lmpi -lrt -lpthread --enable-new-dtags -ldl -Bdynamic -Bstatic -lifport -lifcoremt -limf -lsvml -Bdynamic -lm -Bstatic -lipgo -lirc -Bdynamic -lpthread -Bstatic -lsvml -Bdynamic -lc -lgcc -lgcc_s -Bstatic -lirc_s -Bdynamic -ldl -lc /opt/rh/devtoolset-4/root/usr/lib/gcc/x86_64-redhat-linux/5.3.1/crtend.o /lib/../lib64/crtn.o
configure:3622: result: -v
configure:3624: checking for Fortran libraries of mpif90
configure:3647: mpif90 -o conftest -g -v -L/usr/local/cuda-10.1/lib64 conftest.f
mpif90 for the Intel(R) MPI Library 2019 Update 3 for Linux*
Copyright 2003-2019, Intel Corporation.
ifort version 17.0.5
/opt/intel/compilers_and_libraries_2017.5.239/linux/bin/intel64/fortcom    -D__INTEL_COMPILER=1700 -D__INTEL_COMPILER_UPDATE=5 -D__unix__ -D__unix -D__linux__ -D__linux -D__gnu_linux__ -Dunix -Dlinux -D__ELF__ -D__x86_64 -D__x86_64__ -D__amd64 -D__amd64__ -D__INTEL_COMPILER_BUILD_DATE=20170817 -D__INTEL_OFFLOAD -D__i686 -D__i686__ -D__pentiumpro -D__pentiumpro__ -D__pentium4 -D__pentium4__ -D__tune_pentium4__ -D__SSE2__ -D__SSE2_MATH__ -D__SSE__ -D__SSE_MATH__ -D__MMX__ -mGLOB_pack_sort_init_list -I. -I/opt/intel/compilers_and_libraries_2019.3.199/linux/mpi/intel64/include/gfortran -I/opt/intel/compilers_and_libraries_2019.3.199/linux/mpi/intel64/include -I/opt/intel/compilers_and_libraries_2019.3.199/linux/mpi/intel64/include -I/opt/intel/compilers_and_libraries_2017.5.239/linux/mkl/include -I/opt/intel/compilers_and_libraries_2017.5.239/linux/mkl/include/intel64/lp64 -I/usr/local/intel/include -I/usr/local/cuda-10.1/include -I/opt/intel/compilers_and_libraries_2017.5.239/linux/compiler/include/intel64 -I/opt/intel/compilers_and_libraries_2017.5.239/linux/compiler/include/icc -I/opt/intel/compilers_and_libraries_2017.5.239/linux/compiler/include -I/usr/local/include -I/opt/rh/devtoolset-4/root/usr/lib/gcc/x86_64-redhat-linux/5.3.1/include -I/opt/rh/devtoolset-4/root/usr/include/ -I/usr/include "-fp_modbits honor_f32_conversion" "-fp_modbits honor_f64_conversion" -O0 -g2 "-reentrancy threaded" -simd -offload_host -mGLOB_em64t=TRUE -mP1OPT_version=17.0-intel64 -mGLOB_diag_file=/tmp/ifortnjuGu8.diag -mGLOB_long_size_64 -mGLOB_routine_pointer_size_64 -mGLOB_source_language=GLOB_SOURCE_LANGUAGE_F90 -mP2OPT_static_promotion -mP1OPT_print_version=FALSE -mCG_use_gas_got_workaround=F -mP2OPT_align_option_used=TRUE -mGLOB_gcc_version=531 "-mGLOB_options_string=-I/opt/intel/compilers_and_libraries_2019.3.199/linux/mpi/intel64/include/gfortran -I/opt/intel/compilers_and_libraries_2019.3.199/linux/mpi/intel64/include -o conftest -g -v -L/usr/local/cuda-10.1/lib64 -L/opt/intel/compilers_and_libraries_2019.3.199/linux/mpi/intel64/lib/debug_mt -L/opt/intel/compilers_and_libraries_2019.3.199/linux/mpi/intel64/lib -Xlinker --enable-new-dtags -Xlinker -rpath -Xlinker /opt/intel/compilers_and_libraries_2019.3.199/linux/mpi/intel64/lib/debug_mt -Xlinker -rpath -Xlinker /opt/intel/compilers_and_libraries_2019.3.199/linux/mpi/intel64/lib -lmpifort -lmpi -lrt -lpthread -Xlinker --enable-new-dtags -ldl" -mGLOB_cxx_limited_range=FALSE -mCG_extend_parms=FALSE -mGLOB_compiler_bin_directory=/opt/intel/compilers_and_libraries_2017.5.239/linux/bin/intel64 -mP3OPT_emit_line_numbers -mP2OPT_suppress_unreferenced_locals=FALSE -mGLOB_debug_target=GLOB_DEBUG_TARGET_ALL -mDEBUG_info_level=2 -mDEBUG_use_indirect_strings=TRUE -mGLOB_debug_format=GLOB_DEBUG_FORMAT_DWARF40 -mGLOB_as_output_backup_file_name=/tmp/ifortzLU5tZas_.s -mGLOB_dashboard_use_source_name -mGLOB_instruction_tuning=0x0 -mGLOB_uarch_tuning=0x0 -mGLOB_product_id_code=0x22006d8f -mGLOB_maintain_errno -mGLOB_noinline_intrinsics -mGLOB_use_base_pointer=1 -mCG_bnl_movbe=T -mGLOB_extended_instructions=0x8 -mP3OPT_use_mspp_call_convention -mP2OPT_subs_out_of_bound=FALSE -mP2OPT_disam_type_based_disam=2 -mGLOB_ansi_alias -mIPOPT_ninl_limit=0 -mIPOPT_ninl_user_level=0 -mPGOPTI_value_profile_use=T -mGLOB_opt_report_use_source_name -mP2OPT_gen_linux_const_pooling=FALSE -mP2OPT_il0_array_sections=TRUE -mGLOB_offload_mode=1 -mP2OPT_offload_unique_var_string=ifort0986318493IuWf5u -mGLOB_opt_level=0 -mIPOPT_args_in_regs=0 -mP2OPT_disam_assume_nonstd_intent_in=FALSE -mGLOB_imf_mapping_library=/opt/intel/compilers_and_libraries_2017.5.239/linux/bin/intel64/libiml_attr.so -mIPOPT_single_file_compile_and_link=TRUE -mP2OPT_hlo_embed_loopinfo -mPGOPTI_gen_threadsafe_level=0 -mIPOPT_lto_object_enabled -mIPOPT_lto_object_value=1 -mIPOPT_obj_output_file_name=/tmp/ifortnjuGu8.o -mIPOPT_whole_archive_fixup_file_name=/tmp/ifortwarchrJqmuQ -mGLOB_linker_version=2.25.1 -mGLOB_driver_tempfile_name=/tmp/iforttempfileSOSFZL -mP3OPT_asm_target=P3OPT_ASM_TARGET_GAS -mGLOB_async_unwind_tables=TRUE -mGLOB_obj_output_file=/tmp/ifortnjuGu8.o -mGLOB_source_dialect=GLOB_SOURCE_DIALECT_FORTRAN -mP1OPT_source_file_name=conftest.f -mP1OPT_full_source_file_name=/tigress/bozdag/MARS/SSR_R1/specfem3d_marsglobe_may2019/conftest.f -mP2OPT_symtab_type_copy=true conftest.f
#include "..." search starts here:
#include <...> search starts here:
 .
 /opt/intel/compilers_and_libraries_2019.3.199/linux/mpi/intel64/include/gfortran
 /opt/intel/compilers_and_libraries_2019.3.199/linux/mpi/intel64/include
 /opt/intel/compilers_and_libraries_2019.3.199/linux/mpi/intel64/include
 /opt/intel/compilers_and_libraries_2017.5.239/linux/mkl/include
 /opt/intel/compilers_and_libraries_2017.5.239/linux/mkl/include/intel64/lp64
 /usr/local/intel/include
 /usr/local/cuda-10.1/include
 /opt/intel/compilers_and_libraries_2017.5.239/linux/compiler/include/intel64
 /opt/intel/compilers_and_libraries_2017.5.239/linux/compiler/include/icc
 /opt/intel/compilers_and_libraries_2017.5.239/linux/compiler/include
 /usr/local/include
 /opt/rh/devtoolset-4/root/usr/lib/gcc/x86_64-redhat-linux/5.3.1/include
 /opt/rh/devtoolset-4/root/usr/include/
 /usr/include
End of search list.
ld    /lib/../lib64/crt1.o /lib/../lib64/crti.o /opt/rh/devtoolset-4/root/usr/lib/gcc/x86_64-redhat-linux/5.3.1/crtbegin.o --eh-frame-hdr --build-id -dynamic-linker /lib64/ld-linux-x86-64.so.2 -m elf_x86_64 -L/usr/local/cuda-10.1/lib64 -L/opt/intel/compilers_and_libraries_2019.3.199/linux/mpi/intel64/lib/debug_mt -L/opt/intel/compilers_and_libraries_2019.3.199/linux/mpi/intel64/lib -o conftest /opt/intel/compilers_and_libraries_2017.5.239/linux/compiler/lib/intel64_lin/for_main.o -L/usr/local/cuda-10.1/lib64 -L/opt/intel/compilers_and_libraries_2019.3.199/linux/mpi/intel64/lib -L/usr/local/intel/lib64/intel-mpi -L/opt/intel/compilers_and_libraries_2017.5.239/linux/mkl/lib/intel64 -L/opt/intel/compilers_and_libraries_2017.5.239/linux/compiler/lib/intel64 -L/usr/local/intel/lib64 -L/opt/intel/compilers_and_libraries_2017.5.239/linux/compiler/lib/intel64_lin -L/usr/local/intel/lib64/../lib64 -L/usr/local/intel/lib64/../lib64/ -L/opt/rh/devtoolset-4/root/usr/lib/gcc/x86_64-redhat-linux/5.3.1/ -L/opt/rh/devtoolset-4/root/usr/lib/gcc/x86_64-redhat-linux/5.3.1/../../../../lib64 -L/opt/rh/devtoolset-4/root/usr/lib/gcc/x86_64-redhat-linux/5.3.1/../../../../lib64/ -L/lib/../lib64 -L/lib/../lib64/ -L/usr/lib/../lib64 -L/usr/lib/../lib64/ -L/usr/local/cuda-10.1/lib64 -L/usr/local/cuda-10.1/lib64/ -L/opt/intel/compilers_and_libraries_2019.3.199/linux/mpi/intel64/lib/ -L/usr/local/intel/lib64/intel-mpi/ -L/opt/intel/compilers_and_libraries_2017.5.239/linux/mkl/lib/intel64/ -L/opt/intel/compilers_and_libraries_2017.5.239/linux/compiler/lib/intel64/ -L/usr/local/intel/lib64 -L/usr/local/intel/lib64/ -L/opt/rh/devtoolset-4/root/usr/lib/gcc/x86_64-redhat-linux/5.3.1/../../../ -L/lib64 -L/lib/ -L/usr/lib64 -L/usr/lib /tmp/ifortnjuGu8.o --enable-new-dtags -rpath /opt/intel/compilers_and_libraries_2019.3.199/linux/mpi/intel64/lib/debug_mt -rpath /opt/intel/compilers_and_libraries_2019.3.199/linux/mpi/intel64/lib -lmpifort -lmpi -lrt -lpthread --enable-new-dtags -ldl -Bdynamic -Bstatic -lifport -lifcoremt -limf -lsvml -Bdynamic -lm -Bstatic -lipgo -lirc -Bdynamic -lpthread -Bstatic -lsvml -Bdynamic -lc -lgcc -lgcc_s -Bstatic -lirc_s -Bdynamic -ldl -lc /opt/rh/devtoolset-4/root/usr/lib/gcc/x86_64-redhat-linux/5.3.1/crtend.o /lib/../lib64/crtn.o
configure:3843: result:  -L/usr/local/cuda-10.1/lib64 -L/opt/intel/compilers_and_libraries_2019.3.199/linux/mpi/intel64/lib/debug_mt -L/opt/intel/compilers_and_libraries_2019.3.199/linux/mpi/intel64/lib -L/usr/local/intel/lib64/intel-mpi -L/opt/intel/compilers_and_libraries_2017.5.239/linux/mkl/lib/intel64 -L/opt/intel/compilers_and_libraries_2017.5.239/linux/compiler/lib/intel64 -L/usr/local/intel/lib64 -L/opt/intel/compilers_and_libraries_2017.5.239/linux/compiler/lib/intel64_lin -L/usr/local/intel/lib64/../lib64 -L/usr/local/intel/lib64/../lib64/ -L/opt/rh/devtoolset-4/root/usr/lib/gcc/x86_64-redhat-linux/5.3.1/ -L/opt/rh/devtoolset-4/root/usr/lib/gcc/x86_64-redhat-linux/5.3.1/../../../../lib64 -L/opt/rh/devtoolset-4/root/usr/lib/gcc/x86_64-redhat-linux/5.3.1/../../../../lib64/ -L/lib/../lib64 -L/lib/../lib64/ -L/usr/lib/../lib64 -L/usr/lib/../lib64/ -L/usr/local/cuda-10.1/lib64/ -L/opt/intel/compilers_and_libraries_2019.3.199/linux/mpi/intel64/lib/ -L/usr/local/intel/lib64/intel-mpi/ -L/opt/intel/compilers_and_libraries_2017.5.239/linux/mkl/lib/intel64/ -L/opt/intel/compilers_and_libraries_2017.5.239/linux/compiler/lib/intel64/ -L/usr/local/intel/lib64/ -L/opt/rh/devtoolset-4/root/usr/lib/gcc/x86_64-redhat-linux/5.3.1/../../../ -L/lib64 -L/lib/ -L/usr/lib64 -L/usr/lib -lmpifort -lmpi -lrt -lpthread -ldl -lifport -lifcoremt -limf -lsvml -lm -lipgo -lirc -lirc_s
configure:3902: checking for gcc
configure:3929: result: icc
configure:4158: checking for C compiler version
configure:4167: icc --version >&5
icc (ICC) 17.0.5 20170817
Copyright (C) 1985-2017 Intel Corporation.  All rights reserved.

configure:4178: $? = 0
configure:4167: icc -v >&5
icc version 17.0.5 (gcc version 5.3.1 compatibility)
configure:4178: $? = 0
configure:4167: icc -V >&5
Intel(R) C Intel(R) 64 Compiler for applications running on Intel(R) 64, Version 17.0.5.239 Build 20170817
Copyright (C) 1985-2017 Intel Corporation.  All rights reserved.

configure:4178: $? = 0
configure:4167: icc -qversion >&5
icc: command line warning #10006: ignoring unknown option '-qversion'
icc: command line error: no files specified; for help type "icc -help"
configure:4178: $? = 1
configure:4182: checking whether we are using the GNU C compiler
configure:4209: icc -c   conftest.c >&5
configure:4209: $? = 0
configure:4218: result: yes
configure:4227: checking whether icc accepts -g
configure:4255: icc -c -g  conftest.c >&5
configure:4255: $? = 0
configure:4312: result: yes
configure:4329: checking for icc option to accept ISO C89
configure:4400: icc  -c -g -O2  conftest.c >&5
configure:4400: $? = 0
configure:4413: result: none needed
configure:4439: checking for dummy main to link with Fortran libraries
configure:4473: icc -o conftest -g -O2  -L/usr/local/cuda-10.1/lib64 conftest.c   -L/usr/local/cuda-10.1/lib64 -L/opt/intel/compilers_and_libraries_2019.3.199/linux/mpi/intel64/lib/debug_mt -L/opt/intel/compilers_and_libraries_2019.3.199/linux/mpi/intel64/lib -L/usr/local/intel/lib64/intel-mpi -L/opt/intel/compilers_and_libraries_2017.5.239/linux/mkl/lib/intel64 -L/opt/intel/compilers_and_libraries_2017.5.239/linux/compiler/lib/intel64 -L/usr/local/intel/lib64 -L/opt/intel/compilers_and_libraries_2017.5.239/linux/compiler/lib/intel64_lin -L/usr/local/intel/lib64/../lib64 -L/usr/local/intel/lib64/../lib64/ -L/opt/rh/devtoolset-4/root/usr/lib/gcc/x86_64-redhat-linux/5.3.1/ -L/opt/rh/devtoolset-4/root/usr/lib/gcc/x86_64-redhat-linux/5.3.1/../../../../lib64 -L/opt/rh/devtoolset-4/root/usr/lib/gcc/x86_64-redhat-linux/5.3.1/../../../../lib64/ -L/lib/../lib64 -L/lib/../lib64/ -L/usr/lib/../lib64 -L/usr/lib/../lib64/ -L/usr/local/cuda-10.1/lib64/ -L/opt/intel/compilers_and_libraries_2019.3.199/linux/mpi/intel64/lib/ -L/usr/local/intel/lib64/intel-mpi/ -L/opt/intel/compilers_and_libraries_2017.5.239/linux/mkl/lib/intel64/ -L/opt/intel/compilers_and_libraries_2017.5.239/linux/compiler/lib/intel64/ -L/usr/local/intel/lib64/ -L/opt/rh/devtoolset-4/root/usr/lib/gcc/x86_64-redhat-linux/5.3.1/../../../ -L/lib64 -L/lib/ -L/usr/lib64 -L/usr/lib -lmpifort -lmpi -lrt -lpthread -ldl -lifport -lifcoremt -limf -lsvml -lm -lipgo -lirc -lirc_s >&5
configure:4473: $? = 0
configure:4518: result: none
configure:4551: checking for Fortran name-mangling scheme
configure:4564: mpif90 -c -g  conftest.f >&5
configure:4564: $? = 0
configure:4605: icc -o conftest -g -O2  -L/usr/local/cuda-10.1/lib64 conftest.c cfortran_test.o   -L/usr/local/cuda-10.1/lib64 -L/opt/intel/compilers_and_libraries_2019.3.199/linux/mpi/intel64/lib/debug_mt -L/opt/intel/compilers_and_libraries_2019.3.199/linux/mpi/intel64/lib -L/usr/local/intel/lib64/intel-mpi -L/opt/intel/compilers_and_libraries_2017.5.239/linux/mkl/lib/intel64 -L/opt/intel/compilers_and_libraries_2017.5.239/linux/compiler/lib/intel64 -L/usr/local/intel/lib64 -L/opt/intel/compilers_and_libraries_2017.5.239/linux/compiler/lib/intel64_lin -L/usr/local/intel/lib64/../lib64 -L/usr/local/intel/lib64/../lib64/ -L/opt/rh/devtoolset-4/root/usr/lib/gcc/x86_64-redhat-linux/5.3.1/ -L/opt/rh/devtoolset-4/root/usr/lib/gcc/x86_64-redhat-linux/5.3.1/../../../../lib64 -L/opt/rh/devtoolset-4/root/usr/lib/gcc/x86_64-redhat-linux/5.3.1/../../../../lib64/ -L/lib/../lib64 -L/lib/../lib64/ -L/usr/lib/../lib64 -L/usr/lib/../lib64/ -L/usr/local/cuda-10.1/lib64/ -L/opt/intel/compilers_and_libraries_2019.3.199/linux/mpi/intel64/lib/ -L/usr/local/intel/lib64/intel-mpi/ -L/opt/intel/compilers_and_libraries_2017.5.239/linux/mkl/lib/intel64/ -L/opt/intel/compilers_and_libraries_2017.5.239/linux/compiler/lib/intel64/ -L/usr/local/intel/lib64/ -L/opt/rh/devtoolset-4/root/usr/lib/gcc/x86_64-redhat-linux/5.3.1/../../../ -L/lib64 -L/lib/ -L/usr/lib64 -L/usr/lib -lmpifort -lmpi -lrt -lpthread -ldl -lifport -lifcoremt -limf -lsvml -lm -lipgo -lirc -lirc_s >&5
/tmp/icceLv3pa.o: In function `main':
/tigress/bozdag/MARS/SSR_R1/specfem3d_marsglobe_may2019/conftest.c:28: undefined reference to `foobar'
configure:4605: $? = 1
configure: failed program was:
| /* confdefs.h */
| #define PACKAGE_NAME "Specfem3D_Globe"
| #define PACKAGE_TARNAME "Specfem3DGlobe"
| #define PACKAGE_VERSION "7.0.2"
| #define PACKAGE_STRING "Specfem3D_Globe 7.0.2"
| #define PACKAGE_BUGREPORT "see the wiki"
| #define PACKAGE_URL ""
| /* end confdefs.h.  */
| 
| /* Override any GCC internal prototype to avoid an error.
|    Use char because int might match the return type of a GCC
|    builtin and then its argument prototype would still apply.  */
| #ifdef __cplusplus
| extern "C"
| #endif
| char foobar ();
| #ifdef FC_DUMMY_MAIN
| #ifndef FC_DUMMY_MAIN_EQ_F77
| #  ifdef __cplusplus
|      extern "C"
| #  endif
|    int FC_DUMMY_MAIN() { return 1; }
| #endif
| #endif
| int
| main ()
| {
| return foobar ();
|   ;
|   return 0;
| }
configure:4605: icc -o conftest -g -O2  -L/usr/local/cuda-10.1/lib64 conftest.c cfortran_test.o   -L/usr/local/cuda-10.1/lib64 -L/opt/intel/compilers_and_libraries_2019.3.199/linux/mpi/intel64/lib/debug_mt -L/opt/intel/compilers_and_libraries_2019.3.199/linux/mpi/intel64/lib -L/usr/local/intel/lib64/intel-mpi -L/opt/intel/compilers_and_libraries_2017.5.239/linux/mkl/lib/intel64 -L/opt/intel/compilers_and_libraries_2017.5.239/linux/compiler/lib/intel64 -L/usr/local/intel/lib64 -L/opt/intel/compilers_and_libraries_2017.5.239/linux/compiler/lib/intel64_lin -L/usr/local/intel/lib64/../lib64 -L/usr/local/intel/lib64/../lib64/ -L/opt/rh/devtoolset-4/root/usr/lib/gcc/x86_64-redhat-linux/5.3.1/ -L/opt/rh/devtoolset-4/root/usr/lib/gcc/x86_64-redhat-linux/5.3.1/../../../../lib64 -L/opt/rh/devtoolset-4/root/usr/lib/gcc/x86_64-redhat-linux/5.3.1/../../../../lib64/ -L/lib/../lib64 -L/lib/../lib64/ -L/usr/lib/../lib64 -L/usr/lib/../lib64/ -L/usr/local/cuda-10.1/lib64/ -L/opt/intel/compilers_and_libraries_2019.3.199/linux/mpi/intel64/lib/ -L/usr/local/intel/lib64/intel-mpi/ -L/opt/intel/compilers_and_libraries_2017.5.239/linux/mkl/lib/intel64/ -L/opt/intel/compilers_and_libraries_2017.5.239/linux/compiler/lib/intel64/ -L/usr/local/intel/lib64/ -L/opt/rh/devtoolset-4/root/usr/lib/gcc/x86_64-redhat-linux/5.3.1/../../../ -L/lib64 -L/lib/ -L/usr/lib64 -L/usr/lib -lmpifort -lmpi -lrt -lpthread -ldl -lifport -lifcoremt -limf -lsvml -lm -lipgo -lirc -lirc_s >&5
configure:4605: $? = 0
configure:4663: icc -o conftest -g -O2  -L/usr/local/cuda-10.1/lib64 conftest.c cfortran_test.o   -L/usr/local/cuda-10.1/lib64 -L/opt/intel/compilers_and_libraries_2019.3.199/linux/mpi/intel64/lib/debug_mt -L/opt/intel/compilers_and_libraries_2019.3.199/linux/mpi/intel64/lib -L/usr/local/intel/lib64/intel-mpi -L/opt/intel/compilers_and_libraries_2017.5.239/linux/mkl/lib/intel64 -L/opt/intel/compilers_and_libraries_2017.5.239/linux/compiler/lib/intel64 -L/usr/local/intel/lib64 -L/opt/intel/compilers_and_libraries_2017.5.239/linux/compiler/lib/intel64_lin -L/usr/local/intel/lib64/../lib64 -L/usr/local/intel/lib64/../lib64/ -L/opt/rh/devtoolset-4/root/usr/lib/gcc/x86_64-redhat-linux/5.3.1/ -L/opt/rh/devtoolset-4/root/usr/lib/gcc/x86_64-redhat-linux/5.3.1/../../../../lib64 -L/opt/rh/devtoolset-4/root/usr/lib/gcc/x86_64-redhat-linux/5.3.1/../../../../lib64/ -L/lib/../lib64 -L/lib/../lib64/ -L/usr/lib/../lib64 -L/usr/lib/../lib64/ -L/usr/local/cuda-10.1/lib64/ -L/opt/intel/compilers_and_libraries_2019.3.199/linux/mpi/intel64/lib/ -L/usr/local/intel/lib64/intel-mpi/ -L/opt/intel/compilers_and_libraries_2017.5.239/linux/mkl/lib/intel64/ -L/opt/intel/compilers_and_libraries_2017.5.239/linux/compiler/lib/intel64/ -L/usr/local/intel/lib64/ -L/opt/rh/devtoolset-4/root/usr/lib/gcc/x86_64-redhat-linux/5.3.1/../../../ -L/lib64 -L/lib/ -L/usr/lib64 -L/usr/lib -lmpifort -lmpi -lrt -lpthread -ldl -lifport -lifcoremt -limf -lsvml -lm -lipgo -lirc -lirc_s >&5
configure:4663: $? = 0
configure:4705: result: lower case, underscore, no extra underscore
configure:4780: checking for Fortran flag to compile .f90 files
configure:4800: mpif90 -c -g  conftest.f90 >&5
configure:4800: $? = 0
configure:4809: result: none
configure:4834: checking for Fortran flag needed to accept free-form source
configure:4853: mpif90 -c -g  conftest.f90 >&5
configure:4853: $? = 0
configure:4862: result: none
configure:4887: checking for Fortran flag to compile preprocessed .F files
configure:4912: mpif90 -c -g  conftest.F >&5
configure:4912: $? = 0
configure:4922: mpif90 -c -g  conftest.F >&5
conftest.F(4): #error: can't find include file: ac_nonexistent.h
configure:4922: $? = 1
configure: failed program was:
|       program main
| 
| #if 1
| #include <ac_nonexistent.h>
|       choke me
| #endif
|       end
configure:4935: result: none
configure:4956: checking how to define symbols for preprocessed Fortran
configure:4978: mpif90 -c -g -DFOOBAR -DZORK=42  conftest.F >&5
configure:4978: $? = 0
configure:4987: result: -D
configure:5007: checking for Fortran flag to compile preprocessed .F90 files
configure:5032: mpif90 -c -g  conftest.F90 >&5
configure:5032: $? = 0
configure:5042: mpif90 -c -g  conftest.F90 >&5
conftest.F90(4): #error: can't find include file: ac_nonexistent.h
configure:5042: $? = 1
configure: failed program was:
|       program main
| 
| #if 1
| #include <ac_nonexistent.h>
|       choke me
| #endif
|       end
configure:5055: result: none
configure:5124: checking for gcc
configure:5151: result: icc
configure:5380: checking for C compiler version
configure:5389: icc --version >&5
icc (ICC) 17.0.5 20170817
Copyright (C) 1985-2017 Intel Corporation.  All rights reserved.

configure:5400: $? = 0
configure:5389: icc -v >&5
icc version 17.0.5 (gcc version 5.3.1 compatibility)
configure:5400: $? = 0
configure:5389: icc -V >&5
Intel(R) C Intel(R) 64 Compiler for applications running on Intel(R) 64, Version 17.0.5.239 Build 20170817
Copyright (C) 1985-2017 Intel Corporation.  All rights reserved.

configure:5400: $? = 0
configure:5389: icc -qversion >&5
icc: command line warning #10006: ignoring unknown option '-qversion'
icc: command line error: no files specified; for help type "icc -help"
configure:5400: $? = 1
configure:5404: checking whether we are using the GNU C compiler
configure:5440: result: yes
configure:5449: checking whether icc accepts -g
configure:5534: result: yes
configure:5551: checking for icc option to accept ISO C89
configure:5635: result: none needed
configure:5686: checking Fortran 90 module extension
configure:5708: mpif90 -c -g  conftest.F90 >&5
configure:5708: $? = 0
configure:5724: result: mod
configure:5733: checking Fortran 90 module inclusion flag
configure:5755: mpif90 -c -g  conftest.F90 >&5
configure:5755: $? = 0
configure:5769: mpif90 -c -g -Mconftest.dir -Mconftest.dir  conftest.F90 >&5
ifort: command line warning #10006: ignoring unknown option '-Mconftest.dir'
ifort: command line warning #10006: ignoring unknown option '-Mconftest.dir'
conftest.F90(3): error #7002: Error in opening the compiled module file.  Check INCLUDE paths.   [CONFTEST_MODULE]
      use conftest_module
----------^
compilation aborted for conftest.F90 (code 1)
configure:5769: $? = 1
configure: failed program was:
| 
|       program main
|       use conftest_module
|       call conftest_routine
|       end program
configure:5769: mpif90 -c -g -Iconftest.dir -Iconftest.dir  conftest.F90 >&5
configure:5769: $? = 0
configure:5789: result: -I
configure:5804: checking Fortran 90 module output flag
configure:5832: mpif90 -c -g -Jsub  conftest.F90 >&5
ifort: command line warning #10006: ignoring unknown option '-Jsub'
configure:5832: $? = 0
configure:5841: mpif90 -c -g -Jsub  conftest.F90 >&5
ifort: command line warning #10006: ignoring unknown option '-Jsub'
conftest.F90(3): error #7002: Error in opening the compiled module file.  Check INCLUDE paths.   [CONFTEST_MODULE]
      use conftest_module
----------^
compilation aborted for conftest.F90 (code 1)
configure:5841: $? = 1
configure: failed program was:
| 
|       program main
|       use conftest_module
|       call conftest_routine
|       end program
configure:5832: mpif90 -c -g -J sub  conftest.F90 >&5
ifort: command line warning #10006: ignoring unknown option '-J'
ifort: warning #10145: no action performed for file 'sub'
configure:5832: $? = 0
configure:5841: mpif90 -c -g -J sub  conftest.F90 >&5
ifort: command line warning #10006: ignoring unknown option '-J'
ifort: error #10236: File not found:  'sub'
conftest.F90(3): error #7002: Error in opening the compiled module file.  Check INCLUDE paths.   [CONFTEST_MODULE]
      use conftest_module
----------^
compilation aborted for conftest.F90 (code 1)
configure:5841: $? = 1
configure: failed program was:
| 
|       program main
|       use conftest_module
|       call conftest_routine
|       end program
configure:5832: mpif90 -c -g -fmod=sub  conftest.F90 >&5
ifort: command line warning #10006: ignoring unknown option '-fmod=sub'
configure:5832: $? = 0
configure:5841: mpif90 -c -g -fmod=sub  conftest.F90 >&5
ifort: command line warning #10006: ignoring unknown option '-fmod=sub'
conftest.F90(3): error #7002: Error in opening the compiled module file.  Check INCLUDE paths.   [CONFTEST_MODULE]
      use conftest_module
----------^
compilation aborted for conftest.F90 (code 1)
configure:5841: $? = 1
configure: failed program was:
| 
|       program main
|       use conftest_module
|       call conftest_routine
|       end program
configure:5832: mpif90 -c -g -moddir=sub  conftest.F90 >&5
ifort: command line warning #10159: invalid argument for option '-m'
configure:5832: $? = 0
configure:5841: mpif90 -c -g -moddir=sub  conftest.F90 >&5
ifort: command line warning #10159: invalid argument for option '-m'
conftest.F90(3): error #7002: Error in opening the compiled module file.  Check INCLUDE paths.   [CONFTEST_MODULE]
      use conftest_module
----------^
compilation aborted for conftest.F90 (code 1)
configure:5841: $? = 1
configure: failed program was:
| 
|       program main
|       use conftest_module
|       call conftest_routine
|       end program
configure:5832: mpif90 -c -g +moddir=sub  conftest.F90 >&5
ifort: error #10236: File not found:  '+moddir=sub'
configure:5832: $? = 1
configure: failed program was:
| 
|       module conftest_module
|       contains
|       subroutine conftest_routine
|       write(*,'(a)') 'gotcha!'
|       end subroutine
|       end module
configure:5832: mpif90 -c -g -qmoddir=sub  conftest.F90 >&5
ifort: command line warning #10006: ignoring unknown option '-qmoddir=sub'
configure:5832: $? = 0
configure:5841: mpif90 -c -g -qmoddir=sub  conftest.F90 >&5
ifort: command line warning #10006: ignoring unknown option '-qmoddir=sub'
conftest.F90(3): error #7002: Error in opening the compiled module file.  Check INCLUDE paths.   [CONFTEST_MODULE]
      use conftest_module
----------^
compilation aborted for conftest.F90 (code 1)
configure:5841: $? = 1
configure: failed program was:
| 
|       program main
|       use conftest_module
|       call conftest_routine
|       end program
configure:5832: mpif90 -c -g -mod sub  conftest.F90 >&5
configure:5832: $? = 0
configure:5841: mpif90 -c -g -mod sub  conftest.F90 >&5
configure:5841: $? = 0
configure:5862: result: -mod 
configure:5896: checking how to run the C preprocessor
configure:5927: icc -E  conftest.c
configure:5927: $? = 0
configure:5941: icc -E  conftest.c
conftest.c(11): error #2379: cannot open source file "ac_nonexistent.h"
  #include <ac_nonexistent.h>
                             ^

configure:5941: $? = 2
configure: failed program was:
| /* confdefs.h */
| #define PACKAGE_NAME "Specfem3D_Globe"
| #define PACKAGE_TARNAME "Specfem3DGlobe"
| #define PACKAGE_VERSION "7.0.2"
| #define PACKAGE_STRING "Specfem3D_Globe 7.0.2"
| #define PACKAGE_BUGREPORT "see the wiki"
| #define PACKAGE_URL ""
| #define FC_FUNC(name,NAME) name ## _
| #define FC_FUNC_(name,NAME) name ## _
| /* end confdefs.h.  */
| #include <ac_nonexistent.h>
configure:5966: result: icc -E
configure:5986: icc -E  conftest.c
configure:5986: $? = 0
configure:6000: icc -E  conftest.c
conftest.c(11): error #2379: cannot open source file "ac_nonexistent.h"
  #include <ac_nonexistent.h>
                             ^

configure:6000: $? = 2
configure: failed program was:
| /* confdefs.h */
| #define PACKAGE_NAME "Specfem3D_Globe"
| #define PACKAGE_TARNAME "Specfem3DGlobe"
| #define PACKAGE_VERSION "7.0.2"
| #define PACKAGE_STRING "Specfem3D_Globe 7.0.2"
| #define PACKAGE_BUGREPORT "see the wiki"
| #define PACKAGE_URL ""
| #define FC_FUNC(name,NAME) name ## _
| #define FC_FUNC_(name,NAME) name ## _
| /* end confdefs.h.  */
| #include <ac_nonexistent.h>
configure:6029: checking for grep that handles long lines and -e
configure:6087: result: /usr/bin/grep
configure:6092: checking for egrep
configure:6154: result: /usr/bin/grep -E
configure:6159: checking for ANSI C header files
configure:6187: icc -c -g -O2  conftest.c >&5
configure:6187: $? = 0
configure:6260: icc -o conftest -g -O2  -L/usr/local/cuda-10.1/lib64 conftest.c  >&5
configure:6260: $? = 0
configure:6260: ./conftest
configure:6260: $? = 0
configure:6271: result: yes
configure:6284: checking for sys/types.h
configure:6284: icc -c -g -O2  conftest.c >&5
configure:6284: $? = 0
configure:6284: result: yes
configure:6284: checking for sys/stat.h
configure:6284: icc -c -g -O2  conftest.c >&5
configure:6284: $? = 0
configure:6284: result: yes
configure:6284: checking for stdlib.h
configure:6284: icc -c -g -O2  conftest.c >&5
configure:6284: $? = 0
configure:6284: result: yes
configure:6284: checking for string.h
configure:6284: icc -c -g -O2  conftest.c >&5
configure:6284: $? = 0
configure:6284: result: yes
configure:6284: checking for memory.h
configure:6284: icc -c -g -O2  conftest.c >&5
configure:6284: $? = 0
configure:6284: result: yes
configure:6284: checking for strings.h
configure:6284: icc -c -g -O2  conftest.c >&5
configure:6284: $? = 0
configure:6284: result: yes
configure:6284: checking for inttypes.h
configure:6284: icc -c -g -O2  conftest.c >&5
configure:6284: $? = 0
configure:6284: result: yes
configure:6284: checking for stdint.h
configure:6284: icc -c -g -O2  conftest.c >&5
configure:6284: $? = 0
configure:6284: result: yes
configure:6284: checking for unistd.h
configure:6284: icc -c -g -O2  conftest.c >&5
configure:6284: $? = 0
configure:6284: result: yes
configure:6296: checking emmintrin.h usability
configure:6296: icc -c -g -O2  conftest.c >&5
configure:6296: $? = 0
configure:6296: result: yes
configure:6296: checking emmintrin.h presence
configure:6296: icc -E  conftest.c
configure:6296: $? = 0
configure:6296: result: yes
configure:6296: checking for emmintrin.h
configure:6296: result: yes
configure:6304: checking xmmintrin.h usability
configure:6304: icc -c -g -O2  conftest.c >&5
configure:6304: $? = 0
configure:6304: result: yes
configure:6304: checking xmmintrin.h presence
configure:6304: icc -E  conftest.c
configure:6304: $? = 0
configure:6304: result: yes
configure:6304: checking for xmmintrin.h
configure:6304: result: yes
configure:7587: checking for C++ compiler version
configure:7596: icpc --version >&5
icpc (ICC) 17.0.5 20170817
Copyright (C) 1985-2017 Intel Corporation.  All rights reserved.

configure:7607: $? = 0
configure:7596: icpc -v >&5
icpc version 17.0.5 (gcc version 5.3.1 compatibility)
configure:7607: $? = 0
configure:7596: icpc -V >&5
Intel(R) C++ Intel(R) 64 Compiler for applications running on Intel(R) 64, Version 17.0.5.239 Build 20170817
Copyright (C) 1985-2017 Intel Corporation.  All rights reserved.

configure:7607: $? = 0
configure:7596: icpc -qversion >&5
icpc: command line warning #10006: ignoring unknown option '-qversion'
icpc: command line error: no files specified; for help type "icpc -help"
configure:7607: $? = 1
configure:7611: checking whether we are using the GNU C++ compiler
configure:7638: icpc -c   conftest.cpp >&5
configure:7638: $? = 0
configure:7647: result: yes
configure:7656: checking whether icpc accepts -g
configure:7684: icpc -c -g  conftest.cpp >&5
configure:7684: $? = 0
configure:7741: result: yes
configure:7770: checking how to run the C++ preprocessor
configure:7797: icpc -E  conftest.cpp
configure:7797: $? = 0
configure:7811: icpc -E  conftest.cpp
conftest.cpp(23): error #2379: cannot open source file "ac_nonexistent.h"
  #include <ac_nonexistent.h>
                             ^

configure:7811: $? = 2
configure: failed program was:
| /* confdefs.h */
| #define PACKAGE_NAME "Specfem3D_Globe"
| #define PACKAGE_TARNAME "Specfem3DGlobe"
| #define PACKAGE_VERSION "7.0.2"
| #define PACKAGE_STRING "Specfem3D_Globe 7.0.2"
| #define PACKAGE_BUGREPORT "see the wiki"
| #define PACKAGE_URL ""
| #define FC_FUNC(name,NAME) name ## _
| #define FC_FUNC_(name,NAME) name ## _
| #define STDC_HEADERS 1
| #define HAVE_SYS_TYPES_H 1
| #define HAVE_SYS_STAT_H 1
| #define HAVE_STDLIB_H 1
| #define HAVE_STRING_H 1
| #define HAVE_MEMORY_H 1
| #define HAVE_STRINGS_H 1
| #define HAVE_INTTYPES_H 1
| #define HAVE_STDINT_H 1
| #define HAVE_UNISTD_H 1
| #define HAVE_EMMINTRIN 1
| #define HAVE_XMMINTRIN 1
| /* end confdefs.h.  */
| #include <ac_nonexistent.h>
configure:7836: result: icpc -E
configure:7856: icpc -E  conftest.cpp
configure:7856: $? = 0
configure:7870: icpc -E  conftest.cpp
conftest.cpp(23): error #2379: cannot open source file "ac_nonexistent.h"
  #include <ac_nonexistent.h>
                             ^

configure:7870: $? = 2
configure: failed program was:
| /* confdefs.h */
| #define PACKAGE_NAME "Specfem3D_Globe"
| #define PACKAGE_TARNAME "Specfem3DGlobe"
| #define PACKAGE_VERSION "7.0.2"
| #define PACKAGE_STRING "Specfem3D_Globe 7.0.2"
| #define PACKAGE_BUGREPORT "see the wiki"
| #define PACKAGE_URL ""
| #define FC_FUNC(name,NAME) name ## _
| #define FC_FUNC_(name,NAME) name ## _
| #define STDC_HEADERS 1
| #define HAVE_SYS_TYPES_H 1
| #define HAVE_SYS_STAT_H 1
| #define HAVE_STDLIB_H 1
| #define HAVE_STRING_H 1
| #define HAVE_MEMORY_H 1
| #define HAVE_STRINGS_H 1
| #define HAVE_INTTYPES_H 1
| #define HAVE_STDINT_H 1
| #define HAVE_UNISTD_H 1
| #define HAVE_EMMINTRIN 1
| #define HAVE_XMMINTRIN 1
| /* end confdefs.h.  */
| #include <ac_nonexistent.h>
configure:7999: building from git repository
configure:8210: creating ./config.status

## ---------------------- ##
## Running config.status. ##
## ---------------------- ##

This file was extended by Specfem3D_Globe config.status 7.0.2, which was
generated by GNU Autoconf 2.69.  Invocation command line was

  CONFIG_FILES    = 
  CONFIG_HEADERS  = 
  CONFIG_LINKS    = 
  CONFIG_COMMANDS = 
  $ ./config.status 

on tigercpu.princeton.edu

config.status:948: creating Makefile
config.status:948: creating setup/constants.h
config.status:948: creating setup/constants_tomography.h
config.status:948: creating setup/precision.h
config.status:948: creating setup/config.fh
config.status:948: creating DATA/Par_file
config.status:948: creating DATA/CMTSOLUTION
config.status:948: creating DATA/STATIONS
config.status:948: creating setup/config.h
config.status:1118: setup/config.h is unchanged
config.status:1163: executing bin commands
config.status:1163: executing obj commands
config.status:1163: executing OUTPUT_FILES commands
configure:9451: result: 
configure:9456: result: 
configure:9458: result: ./configure has completed and set up a default configuration to build.
configure:9460: result: 
configure:9462: result: You may wish to modify the following files before building:
configure:9465: result:   DATA/Par_file           Set parameters affecting the build and simulation
                          before running make and compiling.
configure:9468: result:   DATA/CMTSOLUTION        Set the source parameters before running the solver.
configure:9470: result:   DATA/STATIONS           Set the receiver stations before running the solver.
configure:9472: result: 

## ---------------- ##
## Cache variables. ##
## ---------------- ##

ac_cv_build=x86_64-unknown-linux-gnu
ac_cv_c_compiler_gnu=yes
ac_cv_cxx_compiler_gnu=yes
ac_cv_env_ADIOS_CONFIG_set=
ac_cv_env_ADIOS_CONFIG_value=
ac_cv_env_ASDF_LIBS_set=
ac_cv_env_ASDF_LIBS_value=
ac_cv_env_BLAS_LIBS_set=
ac_cv_env_BLAS_LIBS_value=
ac_cv_env_CCC_set=
ac_cv_env_CCC_value=
ac_cv_env_CC_set=set
ac_cv_env_CC_value=icc
ac_cv_env_CEM_FCFLAGS_set=
ac_cv_env_CEM_FCFLAGS_value=
ac_cv_env_CEM_LIBS_set=
ac_cv_env_CEM_LIBS_value=
ac_cv_env_CFLAGS_set=
ac_cv_env_CFLAGS_value=
ac_cv_env_CPPFLAGS_set=
ac_cv_env_CPPFLAGS_value=
ac_cv_env_CPP_set=
ac_cv_env_CPP_value=
ac_cv_env_CUDA_FLAGS_set=
ac_cv_env_CUDA_FLAGS_value=
ac_cv_env_CUDA_INC_set=
ac_cv_env_CUDA_INC_value=
ac_cv_env_CUDA_LIB_set=
ac_cv_env_CUDA_LIB_value=
ac_cv_env_CXXCPP_set=
ac_cv_env_CXXCPP_value=
ac_cv_env_CXXFLAGS_set=
ac_cv_env_CXXFLAGS_value=
ac_cv_env_CXX_set=set
ac_cv_env_CXX_value=icpc
ac_cv_env_FCFLAGS_set=
ac_cv_env_FCFLAGS_value=
ac_cv_env_FC_set=set
ac_cv_env_FC_value=mpif90
ac_cv_env_FLAGS_CHECK_set=
ac_cv_env_FLAGS_CHECK_value=
ac_cv_env_LDFLAGS_set=set
ac_cv_env_LDFLAGS_value=-L/usr/local/cuda-10.1/lib64
ac_cv_env_LIBS_set=
ac_cv_env_LIBS_value=
ac_cv_env_LIBXSMM_INC_set=
ac_cv_env_LIBXSMM_INC_value=
ac_cv_env_LIBXSMM_LIBS_set=
ac_cv_env_LIBXSMM_LIBS_value=
ac_cv_env_LOCAL_PATH_IS_ALSO_GLOBAL_set=
ac_cv_env_LOCAL_PATH_IS_ALSO_GLOBAL_value=
ac_cv_env_MPIFC_set=set
ac_cv_env_MPIFC_value=mpif90
ac_cv_env_MPILIBS_set=
ac_cv_env_MPILIBS_value=
ac_cv_env_MPI_INC_set=
ac_cv_env_MPI_INC_value=
ac_cv_env_NVCC_set=
ac_cv_env_NVCC_value=
ac_cv_env_OCL_CPU_FLAGS_set=
ac_cv_env_OCL_CPU_FLAGS_value=
ac_cv_env_OCL_GPU_FLAGS_set=
ac_cv_env_OCL_GPU_FLAGS_value=
ac_cv_env_OCL_INC_set=
ac_cv_env_OCL_INC_value=
ac_cv_env_OCL_LIB_set=
ac_cv_env_OCL_LIB_value=
ac_cv_env_OMP_FCFLAGS_set=
ac_cv_env_OMP_FCFLAGS_value=
ac_cv_env_build_alias_set=
ac_cv_env_build_alias_value=
ac_cv_env_host_alias_set=
ac_cv_env_host_alias_value=
ac_cv_env_target_alias_set=
ac_cv_env_target_alias_value=
ac_cv_fc_compiler_gnu=no
ac_cv_fc_dummy_main=none
ac_cv_fc_freeform=none
ac_cv_fc_libs=' -L/usr/local/cuda-10.1/lib64 -L/opt/intel/compilers_and_libraries_2019.3.199/linux/mpi/intel64/lib/debug_mt -L/opt/intel/compilers_and_libraries_2019.3.199/linux/mpi/intel64/lib -L/usr/local/intel/lib64/intel-mpi -L/opt/intel/compilers_and_libraries_2017.5.239/linux/mkl/lib/intel64 -L/opt/intel/compilers_and_libraries_2017.5.239/linux/compiler/lib/intel64 -L/usr/local/intel/lib64 -L/opt/intel/compilers_and_libraries_2017.5.239/linux/compiler/lib/intel64_lin -L/usr/local/intel/lib64/../lib64 -L/usr/local/intel/lib64/../lib64/ -L/opt/rh/devtoolset-4/root/usr/lib/gcc/x86_64-redhat-linux/5.3.1/ -L/opt/rh/devtoolset-4/root/usr/lib/gcc/x86_64-redhat-linux/5.3.1/../../../../lib64 -L/opt/rh/devtoolset-4/root/usr/lib/gcc/x86_64-redhat-linux/5.3.1/../../../../lib64/ -L/lib/../lib64 -L/lib/../lib64/ -L/usr/lib/../lib64 -L/usr/lib/../lib64/ -L/usr/local/cuda-10.1/lib64/ -L/opt/intel/compilers_and_libraries_2019.3.199/linux/mpi/intel64/lib/ -L/usr/local/intel/lib64/intel-mpi/ -L/opt/intel/compilers_and_libraries_2017.5.239/linux/mkl/lib/intel64/ -L/opt/intel/compilers_and_libraries_2017.5.239/linux/compiler/lib/intel64/ -L/usr/local/intel/lib64/ -L/opt/rh/devtoolset-4/root/usr/lib/gcc/x86_64-redhat-linux/5.3.1/../../../ -L/lib64 -L/lib/ -L/usr/lib64 -L/usr/lib -lmpifort -lmpi -lrt -lpthread -ldl -lifport -lifcoremt -limf -lsvml -lm -lipgo -lirc -lirc_s'
ac_cv_fc_mangling='lower case, underscore, no extra underscore'
ac_cv_fc_module_ext=mod
ac_cv_fc_module_flag=-I
ac_cv_fc_module_output_flag='-mod '
ac_cv_fc_pp_define=-D
ac_cv_fc_pp_srcext_F90=none
ac_cv_fc_pp_srcext_F=none
ac_cv_fc_srcext_f90=none
ac_cv_fortran_dummy_main=none
ac_cv_header_emmintrin_h=yes
ac_cv_header_inttypes_h=yes
ac_cv_header_memory_h=yes
ac_cv_header_stdc=yes
ac_cv_header_stdint_h=yes
ac_cv_header_stdlib_h=yes
ac_cv_header_string_h=yes
ac_cv_header_strings_h=yes
ac_cv_header_sys_stat_h=yes
ac_cv_header_sys_types_h=yes
ac_cv_header_unistd_h=yes
ac_cv_header_xmmintrin_h=yes
ac_cv_host=x86_64-unknown-linux-gnu
ac_cv_objext=o
ac_cv_path_EGREP='/usr/bin/grep -E'
ac_cv_path_GREP=/usr/bin/grep
ac_cv_prog_CPP='icc -E'
ac_cv_prog_CXXCPP='icpc -E'
ac_cv_prog_ac_ct_CC=icc
ac_cv_prog_cc_c89=
ac_cv_prog_cc_g=yes
ac_cv_prog_cxx_g=yes
ac_cv_prog_fc_g=yes
ac_cv_prog_fc_v=-v

## ----------------- ##
## Output variables. ##
## ----------------- ##

ADIOS_CONFIG=''
ADIOS_FCFLAGS=''
ADIOS_LIBS=''
ASDF_LIBS=''
BLAS_LIBS=''
CC='icc'
CEM_FCFLAGS=''
CEM_LIBS=''
CFLAGS='-g -O2'
COND_ADIOS_FALSE=''
COND_ADIOS_TRUE='#'
COND_ASDF_FALSE=''
COND_ASDF_TRUE='#'
COND_CEM_FALSE=''
COND_CEM_TRUE='#'
COND_CUDA5_FALSE=''
COND_CUDA5_TRUE='#'
COND_CUDA6_FALSE=''
COND_CUDA6_TRUE='#'
COND_CUDA7_FALSE=''
COND_CUDA7_TRUE='#'
COND_CUDA8_FALSE=''
COND_CUDA8_TRUE='#'
COND_CUDA9_FALSE=''
COND_CUDA9_TRUE='#'
COND_CUDA_FALSE=''
COND_CUDA_PLUS_FALSE=''
COND_CUDA_PLUS_TRUE='#'
COND_CUDA_TRUE='#'
COND_DEBUG_FALSE=''
COND_DEBUG_TRUE='#'
COND_MIC_FALSE=''
COND_MIC_TRUE='#'
COND_OCL_FALSE=''
COND_OCL_TRUE='#'
COND_OMP_FALSE=''
COND_OMP_TRUE='#'
COND_VECTORIZATION_FALSE=''
COND_VECTORIZATION_TRUE='#'
COND_VTK_FALSE=''
COND_VTK_TRUE='#'
COND_XSMM_FALSE=''
COND_XSMM_TRUE='#'
CONFIGURE_FLAGS='FC=mpif90 FCFLAGS=-g'
CPP='icc -E'
CPPFLAGS=''
CUDA_CPPFLAGS=''
CUDA_FLAGS=''
CUDA_INC=''
CUDA_LDFLAGS=''
CUDA_LIB=''
CUDA_LIBS=''
CUSTOM_MPI_TYPE='MPI_REAL'
CUSTOM_REAL='SIZE_REAL'
CXX='icpc'
CXXCPP='icpc -E'
CXXFLAGS='-g -O2'
DEFS='-DHAVE_CONFIG_H'
ECHO_C=''
ECHO_N='-n'
ECHO_T=''
EGREP='/usr/bin/grep -E'
EXEEXT=''
FC='mpif90'
FCENV=''
FCFLAGS='-g'
FCFLAGS_F90=''
FCFLAGS_F=''
FCFLAGS_f90='-mod ./obj -I./obj -I. '
FCLIBS=' -L/usr/local/cuda-10.1/lib64 -L/opt/intel/compilers_and_libraries_2019.3.199/linux/mpi/intel64/lib/debug_mt -L/opt/intel/compilers_and_libraries_2019.3.199/linux/mpi/intel64/lib -L/usr/local/intel/lib64/intel-mpi -L/opt/intel/compilers_and_libraries_2017.5.239/linux/mkl/lib/intel64 -L/opt/intel/compilers_and_libraries_2017.5.239/linux/compiler/lib/intel64 -L/usr/local/intel/lib64 -L/opt/intel/compilers_and_libraries_2017.5.239/linux/compiler/lib/intel64_lin -L/usr/local/intel/lib64/../lib64 -L/usr/local/intel/lib64/../lib64/ -L/opt/rh/devtoolset-4/root/usr/lib/gcc/x86_64-redhat-linux/5.3.1/ -L/opt/rh/devtoolset-4/root/usr/lib/gcc/x86_64-redhat-linux/5.3.1/../../../../lib64 -L/opt/rh/devtoolset-4/root/usr/lib/gcc/x86_64-redhat-linux/5.3.1/../../../../lib64/ -L/lib/../lib64 -L/lib/../lib64/ -L/usr/lib/../lib64 -L/usr/lib/../lib64/ -L/usr/local/cuda-10.1/lib64/ -L/opt/intel/compilers_and_libraries_2019.3.199/linux/mpi/intel64/lib/ -L/usr/local/intel/lib64/intel-mpi/ -L/opt/intel/compilers_and_libraries_2017.5.239/linux/mkl/lib/intel64/ -L/opt/intel/compilers_and_libraries_2017.5.239/linux/compiler/lib/intel64/ -L/usr/local/intel/lib64/ -L/opt/rh/devtoolset-4/root/usr/lib/gcc/x86_64-redhat-linux/5.3.1/../../../ -L/lib64 -L/lib/ -L/usr/lib64 -L/usr/lib -lmpifort -lmpi -lrt -lpthread -ldl -lifport -lifcoremt -limf -lsvml -lm -lipgo -lirc -lirc_s'
FC_DEFINE='-D'
FC_MODDIR='./obj'
FC_MODEXT='mod'
FC_MODINC='-I'
FC_MODOUT='-mod ${ac_empty}'
FLAGS_CHECK=' '
GIT_VERSION_DEPS='./.git/logs/HEAD'
GREP='/usr/bin/grep'
LDFLAGS='-L/usr/local/cuda-10.1/lib64'
LIBOBJS=''
LIBS=''
LIBXSMM_INC=''
LIBXSMM_LIBS=''
LOCAL_PATH_IS_ALSO_GLOBAL='true'
LTLIBOBJS=''
MPIFC='mpif90'
MPILIBS=''
MPI_INC=''
MPI_INCLUDES=''
NVCC=''
NVCC_PROG=''
OBJEXT='o'
OCL_CFLAGS=''
OCL_CPU_FLAGS=''
OCL_GPU_FLAGS=''
OCL_INC=''
OCL_LDFLAGS=''
OCL_LIB=''
OCL_LIBS=''
OMP_FCFLAGS=''
PACKAGE_BUGREPORT='see the wiki'
PACKAGE_NAME='Specfem3D_Globe'
PACKAGE_STRING='Specfem3D_Globe 7.0.2'
PACKAGE_TARNAME='Specfem3DGlobe'
PACKAGE_URL=''
PACKAGE_VERSION='7.0.2'
PATH_SEPARATOR=':'
SHELL='/bin/sh'
VTK_INCLUDES=''
VTK_LDFLAGS=''
VTK_LIBS=''
ac_ct_CC='icc'
ac_ct_CXX=''
ac_ct_FC=''
ac_empty=''
bindir='${exec_prefix}/bin'
build='x86_64-unknown-linux-gnu'
build_alias=''
build_cpu='x86_64'
build_os='linux-gnu'
build_vendor='unknown'
datadir='${datarootdir}'
datarootdir='${prefix}/share'
docdir='${datarootdir}/doc/${PACKAGE_TARNAME}'
dvidir='${docdir}'
exec_prefix='${prefix}'
host='x86_64-unknown-linux-gnu'
host_alias=''
host_cpu='x86_64'
host_os='linux-gnu'
host_vendor='unknown'
htmldir='${docdir}'
includedir='${prefix}/include'
infodir='${datarootdir}/info'
libdir='${exec_prefix}/lib'
libexecdir='${exec_prefix}/libexec'
localedir='${datarootdir}/locale'
localstatedir='${prefix}/var'
mandir='${datarootdir}/man'
oldincludedir='/usr/include'
pdfdir='${docdir}'
prefix='/usr/local'
program_transform_name='s,x,x,'
psdir='${docdir}'
sbindir='${exec_prefix}/sbin'
sharedstatedir='${prefix}/com'
srcdir='.'
sysconfdir='${prefix}/etc'
target_alias=''

## ----------- ##
## confdefs.h. ##
## ----------- ##

/* confdefs.h */
#define PACKAGE_NAME "Specfem3D_Globe"
#define PACKAGE_TARNAME "Specfem3DGlobe"
#define PACKAGE_VERSION "7.0.2"
#define PACKAGE_STRING "Specfem3D_Globe 7.0.2"
#define PACKAGE_BUGREPORT "see the wiki"
#define PACKAGE_URL ""
#define FC_FUNC(name,NAME) name ## _
#define FC_FUNC_(name,NAME) name ## _
#define STDC_HEADERS 1
#define HAVE_SYS_TYPES_H 1
#define HAVE_SYS_STAT_H 1
#define HAVE_STDLIB_H 1
#define HAVE_STRING_H 1
#define HAVE_MEMORY_H 1
#define HAVE_STRINGS_H 1
#define HAVE_INTTYPES_H 1
#define HAVE_STDINT_H 1
#define HAVE_UNISTD_H 1
#define HAVE_EMMINTRIN 1
#define HAVE_XMMINTRIN 1

configure: exit 0
